Input Parameters:
   integrator                     = md
   tinit                          = 0
   dt                             = 0.002
   nsteps                         = 10000000000
   init-step                      = 0
   simulation-part                = 1
   mts                            = false
   comm-mode                      = Linear
   nstcomm                        = 100
   bd-fric                        = 0
   ld-seed                        = -34082945
   emtol                          = 10
   emstep                         = 0.01
   niter                          = 20
   fcstep                         = 0
   nstcgsteep                     = 1000
   nbfgscorr                      = 10
   rtpi                           = 0.05
   nstxout                        = 25000
   nstvout                        = 25000
   nstfout                        = 0
   nstlog                         = 25000
   nstcalcenergy                  = 100
   nstenergy                      = 25000
   nstxout-compressed             = 200
   compressed-x-precision         = 1000
   cutoff-scheme                  = Verlet
   nstlist                        = 40
   pbc                            = xyz
   periodic-molecules             = false
   verlet-buffer-tolerance        = 0.005
   rlist                          = 1.115
   coulombtype                    = PME
   coulomb-modifier               = Potential-shift
   rcoulomb-switch                = 0
   rcoulomb                       = 1
   epsilon-r                      = 1
   epsilon-rf                     = inf
   vdw-type                       = PME
   vdw-modifier                   = Potential-shift
   rvdw-switch                    = 0
   rvdw                           = 1
   DispCorr                       = No
   table-extension                = 1
   fourierspacing                 = 0.15
   fourier-nx                     = 28
   fourier-ny                     = 28
   fourier-nz                     = 28
   pme-order                      = 4
   ewald-rtol                     = 1e-05
   ewald-rtol-lj                  = 0.001
   lj-pme-comb-rule               = Geometric
   ewald-geometry                 = 3d
   epsilon-surface                = 0
   tcoupl                         = V-rescale
   nsttcouple                     = 10
   nh-chain-length                = 0
   print-nose-hoover-chain-variables = false
   pcoupl                         = C-rescale
   pcoupltype                     = Isotropic
   nstpcouple                     = 10
   tau-p                          = 12
   compressibility (3x3):
      compressibility[    0]={ 4.50000e-05,  0.00000e+00,  0.00000e+00}
      compressibility[    1]={ 0.00000e+00,  4.50000e-05,  0.00000e+00}
      compressibility[    2]={ 0.00000e+00,  0.00000e+00,  4.50000e-05}
   ref-p (3x3):
      ref-p[    0]={ 1.00000e+00,  0.00000e+00,  0.00000e+00}
      ref-p[    1]={ 0.00000e+00,  1.00000e+00,  0.00000e+00}
      ref-p[    2]={ 0.00000e+00,  0.00000e+00,  1.00000e+00}
   refcoord-scaling               = COM
   posres-com (3):
      posres-com[0]= 0.00000e+00
      posres-com[1]= 0.00000e+00
      posres-com[2]= 0.00000e+00
   posres-comB (3):
      posres-comB[0]= 0.00000e+00
      posres-comB[1]= 0.00000e+00
      posres-comB[2]= 0.00000e+00
   QMMM                           = false
qm-opts:
   ngQM                           = 0
   constraint-algorithm           = Lincs
   continuation                   = false
   Shake-SOR                      = false
   shake-tol                      = 0.0001
   lincs-order                    = 4
   lincs-iter                     = 1
   lincs-warnangle                = 30
   nwall                          = 0
   wall-type                      = 9-3
   wall-r-linpot                  = -1
   wall-atomtype[0]               = -1
   wall-atomtype[1]               = -1
   wall-density[0]                = 0
   wall-density[1]                = 0
   wall-ewald-zfac                = 3
   pull                           = false
   awh                            = false
   rotation                       = false
   interactiveMD                  = false
   disre                          = No
   disre-weighting                = Conservative
   disre-mixed                    = false
   dr-fc                          = 1000
   dr-tau                         = 0
   nstdisreout                    = 100
   orire-fc                       = 0
   orire-tau                      = 0
   nstorireout                    = 100
   free-energy                    = no
   cos-acceleration               = 0
   deform (3x3):
      deform[    0]={ 0.00000e+00,  0.00000e+00,  0.00000e+00}
      deform[    1]={ 0.00000e+00,  0.00000e+00,  0.00000e+00}
      deform[    2]={ 0.00000e+00,  0.00000e+00,  0.00000e+00}
   simulated-tempering            = false
   swapcoords                     = no
   userint1                       = 0
   userint2                       = 0
   userint3                       = 0
   userint4                       = 0
   userreal1                      = 0
   userreal2                      = 0
   userreal3                      = 0
   userreal4                      = 0
   applied-forces:
     electric-field:
       x:
         E0                       = 0
         omega                    = 0
         t0                       = 0
         sigma                    = 0
       y:
         E0                       = 0
         omega                    = 0
         t0                       = 0
         sigma                    = 0
       z:
         E0                       = 0
         omega                    = 0
         t0                       = 0
         sigma                    = 0
     density-guided-simulation:
       active                     = false
       group                      = protein
       similarity-measure         = inner-product
       atom-spreading-weight      = unity
       force-constant             = 1e+09
       gaussian-transform-spreading-width = 0.2
       gaussian-transform-spreading-range-in-multiples-of-width = 4
       reference-density-filename = reference.mrc
       nst                        = 1
       normalize-densities        = true
       adaptive-force-scaling     = false
       adaptive-force-scaling-time-constant = 4
       shift-vector               =
       transformation-matrix      =
     qmmm-cp2k:
       active                     = false
       qmgroup                    = System
       qmmethod                   = PBE
       qmfilenames                =
       qmcharge                   = 0
       qmmultiplicity             = 1
grpopts:
   nrdf:       13335
   ref-t:         298
   tau-t:         0.1
annealing:          No
annealing-npoints:           0
   acc:	           0           0           0
   nfreeze:           N           N           N
   energygrp-flags[  0]: 0

Changing nstlist from 40 to 50, rlist from 1.115 to 1.132

Initializing Domain Decomposition on 1 ranks
Dynamic load balancing: auto
Using update groups, nr 2232, average size 3.9 atoms, max. radius 0.103 nm
Minimum cell size due to atom displacement: 0.384 nm
Initial maximum distances in bonded interactions:
    two-body bonded interactions: 0.402 nm, LJ-14, atoms 25 64
  multi-body bonded interactions: 0.402 nm, Ryckaert-Bell., atoms 25 64
Minimum cell size due to bonded interactions: 0.442 nm
Using 0 separate PME ranks because: there are too few total ranks for efficient splitting
Optimizing the DD grid for 1 cells with a minimum initial size of 0.442 nm
The maximum allowed number of cells is: X 9 Y 9 Z 9
Domain decomposition grid 1 x 1 x 1, separate PME ranks 0
PME domain decomposition: 1 x 1 x 1

The initial number of communication pulses is:
The initial domain decomposition cell size is:

The maximum allowed distance for atom groups involved in interactions is:
                 non-bonded interactions           1.339 nm
(the following are initial values, they could change due to box deformation)
            two-body bonded interactions  (-rdd)   1.339 nm
          multi-body bonded interactions  (-rdd)   1.339 nm

When dynamic load balancing gets turned on, these settings will change to:
The maximum number of communication pulses is:
The minimum size for domain decomposition cells is 1.339 nm
The requested allowed shrink of DD cells (option -dds) is: 0.80
The allowed shrink of domain decomposition cells is:
The maximum allowed distance for atom groups involved in interactions is:
                 non-bonded interactions           1.339 nm
            two-body bonded interactions  (-rdd)   1.339 nm
          multi-body bonded interactions  (-rdd)   1.339 nm

Using 1 MPI thread

Non-default thread affinity set, disabling internal thread affinity

Using 4 OpenMP threads

System total charge: 0.000
Will do PME sum in reciprocal space for LJ dispersion interactions.

Using a Gaussian width (1/beta) of 0.298423 nm for LJ Ewald
Will do PME sum in reciprocal space for electrostatic interactions.

Using a Gaussian width (1/beta) of 0.320163 nm for Ewald
Potential shift: LJ r^-12: -1.000e+00 r^-6: -1.000e-03, Ewald -1.000e-05
Initialized non-bonded Coulomb Ewald tables, spacing: 9.33e-04 size: 1073

Using shifted Lennard-Jones, switch between 0 and 1 nm
Generated table with 1066 data points for 1-4 COUL.
Tabscale = 500 points/nm
Generated table with 1066 data points for 1-4 LJ6.
Tabscale = 500 points/nm
Generated table with 1066 data points for 1-4 LJ12.
Tabscale = 500 points/nm

Using SIMD 4x8 nonbonded short-range kernels

Using a dual 4x8 pair-list setup updated with dynamic pruning:
  outer list: updated every 50 steps, buffer 0.132 nm, rlist 1.132 nm
  inner list: updated every  8 steps, buffer 0.003 nm, rlist 1.003 nm
At tolerance 0.005 kJ/mol/ps per atom, equivalent classical 1x1 list would be:
  outer list: updated every 50 steps, buffer 0.246 nm, rlist 1.246 nm
  inner list: updated every  8 steps, buffer 0.031 nm, rlist 1.031 nm
Removing pbc first time

Linking all bonded interactions to atoms

Initializing LINear Constraint Solver

The number of constraints is 96

There are: 6628 Atoms
There are: 2150 VSites

Atom distribution over 1 domains: av 8778 stddev 0 min 8778 max 8778

Constraining the starting coordinates (step 0)

Constraining the coordinates at t0-dt (step 0)
Center of mass motion removal mode is Linear
We have the following groups for center of mass motion removal:
  0:  rest
RMS relative constraint deviation after constraining: 2.59e-06
Initial temperature: 301.578 K

PLUMED: PLUMED is starting
PLUMED: Version: 2.9.0 (git: Unknown) compiled on Sep 14 2023 at 08:16:50
PLUMED: Please cite these papers when using PLUMED [1][2]
PLUMED: For further information see the PLUMED web page at http://www.plumed.org
PLUMED: Root: /home/groups/asalleo/nsiemons/gromacs_plumed/lib/plumed
PLUMED: For installed feature, see /home/groups/asalleo/nsiemons/gromacs_plumed/lib/plumed/src/config/config.txt
PLUMED: Molecular dynamics engine: gromacs
PLUMED: Precision of reals: 4
PLUMED: Running over 1 node
PLUMED: Number of threads: 4
PLUMED: Cache line size: 512
PLUMED: Number of atoms: 8778
PLUMED: File suffix:
PLUMED: FILE: ../plumed.dat
PLUMED: Action GROUP
PLUMED:   with label r1
PLUMED:   importing group 'res_1' from index file ../index.ndx
PLUMED:   list of atoms:
PLUMED:  1 2 3 4 5 6 7 8 9 10 11 12 13 14 15 16 17 18 19 20 21 22 23 24 25
PLUMED:  26 27 28 29 30 31 32 33 34 35 36 37 38 39 40 41 42 43 44 45 46 47 48 49 50
PLUMED:  51 52 53 54 55 56 57 58 59 60 61 62 63 64 65 66 67 68 69 70 71 72 73 74 75
PLUMED:  76 77 78 79 80 81 82 83 84 85 86 87 88 89
PLUMED: Action GROUP
PLUMED:   with label r2
PLUMED:   importing group 'res_2' from index file ../index.ndx
PLUMED:   list of atoms:
PLUMED:  90 91 92 93 94 95 96 97 98 99 100 101 102 103 104 105 106 107 108 109 110 111 112 113 114
PLUMED:  115 116 117 118 119 120 121 122 123 124 125 126 127 128 129 130 131 132 133 134 135 136 137 138 139
PLUMED:  140 141 142 143 144 145 146 147 148 149 150 151 152 153 154 155 156 157 158 159 160 161 162 163 164
PLUMED:  165 166 167 168 169 170 171 172 173 174 175 176 177 178
PLUMED: Action CENTER
PLUMED:   with label CO1
PLUMED:   serial associated to this virtual atom is 8779
PLUMED:   of atoms:
PLUMED:  1 2 3 4 5 6 7 8 9 10 11 12 13 14 15 16 17 18 19 20 21 22 23 24 25
PLUMED:  26 27 28 29 30 31 32 33 34 35 36 37 38 39 40 41 42 43 44 45 46 47 48 49 50
PLUMED:  51 52 53 54 55 56 57 58 59 60 61 62 63 64 65 66 67 68 69 70 71 72 73 74 75
PLUMED:  76 77 78 79 80 81 82 83 84 85 86 87 88 89
PLUMED:  using the geometric center
PLUMED:   broken molecules will be rebuilt assuming atoms are in the proper order
PLUMED: Action CENTER
PLUMED:   with label CO2
PLUMED:   serial associated to this virtual atom is 8780
PLUMED:   of atoms:
PLUMED:  90 91 92 93 94 95 96 97 98 99 100 101 102 103 104 105 106 107 108 109 110 111 112 113 114
PLUMED:  115 116 117 118 119 120 121 122 123 124 125 126 127 128 129 130 131 132 133 134 135 136 137 138 139
PLUMED:  140 141 142 143 144 145 146 147 148 149 150 151 152 153 154 155 156 157 158 159 160 161 162 163 164
PLUMED:  165 166 167 168 169 170 171 172 173 174 175 176 177 178
PLUMED:  using the geometric center
PLUMED:   broken molecules will be rebuilt assuming atoms are in the proper order
PLUMED: Action DISTANCE
PLUMED:   with label D1
PLUMED:   between atoms 8779 8780
PLUMED:   using periodic boundary conditions
PLUMED: Action COORDINATION
PLUMED:   with label CM1
PLUMED:   between two groups of 89 and 89 atoms
PLUMED:   first group:
PLUMED:   1  2  3  4  5  6  7  8  9  10  11  12  13  14  15  16  17  18  19  20  21  22  23  24
PLUMED:   25  26  27  28  29  30  31  32  33  34  35  36  37  38  39  40  41  42  43  44  45  46  47  48  49
PLUMED:   50  51  52  53  54  55  56  57  58  59  60  61  62  63  64  65  66  67  68  69  70  71  72  73  74
PLUMED:   75  76  77  78  79  80  81  82  83  84  85  86  87  88  89
PLUMED:   second group:
PLUMED:   90  91  92  93  94  95  96  97  98  99  100  101  102  103  104  105  106  107  108  109  110  111  112  113
PLUMED:   114  115  116  117  118  119  120  121  122  123  124  125  126  127  128  129  130  131  132  133  134  135  136  137  138
PLUMED:   139  140  141  142  143  144  145  146  147  148  149  150  151  152  153  154  155  156  157  158  159  160  161  162  163
PLUMED:   164  165  166  167  168  169  170  171  172  173  174  175  176  177  178
PLUMED:   using periodic boundary conditions
PLUMED:   contacts are counted with cutoff 0.5.  Using rational switching function with parameters d0=0 nn=6 mm=12
PLUMED: Action OPES_METAD
PLUMED:   with label opes
PLUMED:   with arguments D1 CM1
PLUMED:   added component to this action:  opes.bias
PLUMED:   added component to this action:  opes.rct
PLUMED:   added component to this action:  opes.zed
PLUMED:   added component to this action:  opes.neff
PLUMED:   added component to this action:  opes.nker
PLUMED:   temperature = 298
PLUMED:   beta = 0.403599
PLUMED:   depositing new kernels with PACE = 500
PLUMED:   expected BARRIER is 60
PLUMED:   using target distribution with BIASFACTOR gamma = 5
PLUMED:   kernels have initial SIGMA =  0.1 2
PLUMED:   kernels are truncated with KERNELS_CUTOFF = 7.78073
PLUMED:   the value at cutoff is = 7.1442e-14
PLUMED:   regularization EPSILON = 7.1442e-14
PLUMED:   kernels will be compressed when closer than COMPRESSION_THRESHOLD = 1
PLUMED:   using multiple OpenMP threads per simulation: 4
PLUMED:   Bibliography: [3]
PLUMED: Action PRINT
PLUMED:   with label @7
PLUMED:   with stride 500
PLUMED:   with arguments D1 CM1 opes.bias opes.rct opes.zed opes.neff opes.nker
PLUMED:   on file ../COLVAR
PLUMED:   with format  %f
PLUMED: END FILE: ../plumed.dat
PLUMED: Timestep: 0.002000
PLUMED: KbT: 2.477710
PLUMED: Relevant bibliography:
PLUMED:   [1] The PLUMED consortium, Nat. Methods 16, 670 (2019)
PLUMED:   [2] Tribello, Bonomi, Branduardi, Camilloni, and Bussi, Comput. Phys. Commun. 185, 604 (2014)
PLUMED:   [3] M. Invernizzi and M. Parrinello, J. Phys. Chem. Lett. 11, 2731-2736 (2020)
PLUMED: Please read and cite where appropriate!
PLUMED: Finished setup
Started mdrun on rank 0 Thu Sep 14 09:00:04 2023

           Step           Time
              0        0.00000

   Energies (kJ/mol)
           Bond          Angle Ryckaert-Bell.  Improper Dih.          LJ-14
    1.36567e+02    3.99799e+02    4.91544e+01    4.96848e+01    3.27151e+02
     Coulomb-14        LJ (SR)   Coulomb (SR)   Coul. recip.      LJ recip.
   -8.96132e+02    2.54883e+04   -1.27542e+05    5.85314e+02   -9.62738e+03
      Potential    Kinetic En.   Total Energy  Conserved En.    Temperature
   -1.11029e+05    1.70571e+04   -9.39723e+04   -9.39720e+04    3.07687e+02
    3.37727e+02    3.23295e-06

	<====  A V E R A G E S  ====>

	Statistics over 963051 steps using 9631 frames

   Energies (kJ/mol)
           Bond          Angle Ryckaert-Bell.  Improper Dih.          LJ-14
    1.82343e+02    5.22914e+02    4.99018e+01    7.56316e+01    3.30829e+02
     Coulomb-14        LJ (SR)   Coulomb (SR)   Coul. recip.      LJ recip.
   -8.97697e+02    2.56609e+04   -1.28311e+05    5.65704e+02   -9.55968e+03
      Potential    Kinetic En.   Total Energy  Conserved En.    Temperature
   -1.11380e+05    1.65333e+04   -9.48468e+04    1.68441e+04    2.98237e+02
 Pressure (bar)   Constr. rmsd
    5.04185e+00    0.00000e+00

          Box-X          Box-Y          Box-Z
    4.04391e+00    4.04391e+00    4.04391e+00

   Total Virial (kJ/mol)
    5.50028e+03    7.21537e-02   -1.19069e+01
    1.51159e-01    5.49960e+03    6.88117e+00
   -1.04429e+01    5.41099e+00    5.50763e+03

   Pressure (bar)
    8.80596e+00    1.34238e-01    5.04633e+00
    9.47707e-02    3.22017e+00   -3.84336e+00
    4.31123e+00   -3.10540e+00    3.09942e+00
