Input Parameters:
   integrator                     = md
   tinit                          = 0
   dt                             = 0.002
   nsteps                         = 1000000000
   init-step                      = 0
   simulation-part                = 1
   mts                            = false
   comm-mode                      = Linear
   nstcomm                        = 100
   bd-fric                        = 0
   ld-seed                        = 1428160478
   emtol                          = 10
   emstep                         = 0.01
   niter                          = 20
   fcstep                         = 0
   nstcgsteep                     = 1000
   nbfgscorr                      = 10
   rtpi                           = 0.05
   nstxout                        = 15000
   nstvout                        = 15000
   nstfout                        = 0
   nstlog                         = 15000
   nstcalcenergy                  = 100
   nstenergy                      = 15000
   nstxout-compressed             = 200
   compressed-x-precision         = 1000
   cutoff-scheme                  = Verlet
   nstlist                        = 40
   pbc                            = xyz
   periodic-molecules             = false
   verlet-buffer-tolerance        = 0.005
   rlist                          = 1
   coulombtype                    = PME
   coulomb-modifier               = Potential-shift
   rcoulomb-switch                = 0
   rcoulomb                       = 1
   epsilon-r                      = 1
   epsilon-rf                     = inf
   vdw-type                       = PME
   vdw-modifier                   = Potential-shift
   rvdw-switch                    = 0
   rvdw                           = 1
   DispCorr                       = No
   table-extension                = 1
   fourierspacing                 = 0.15
   fourier-nx                     = 60
   fourier-ny                     = 60
   fourier-nz                     = 60
   pme-order                      = 4
   ewald-rtol                     = 1e-05
   ewald-rtol-lj                  = 0.001
   lj-pme-comb-rule               = Geometric
   ewald-geometry                 = 0
   epsilon-surface                = 0
   tcoupl                         = V-rescale
   nsttcouple                     = 10
   nh-chain-length                = 0
   print-nose-hoover-chain-variables = false
   pcoupl                         = Berendsen
   pcoupltype                     = Isotropic
   nstpcouple                     = 10
   tau-p                          = 12
   compressibility (3x3):
      compressibility[    0]={ 4.50000e-05,  0.00000e+00,  0.00000e+00}
      compressibility[    1]={ 0.00000e+00,  4.50000e-05,  0.00000e+00}
      compressibility[    2]={ 0.00000e+00,  0.00000e+00,  4.50000e-05}
   ref-p (3x3):
      ref-p[    0]={ 1.00000e+00,  0.00000e+00,  0.00000e+00}
      ref-p[    1]={ 0.00000e+00,  1.00000e+00,  0.00000e+00}
      ref-p[    2]={ 0.00000e+00,  0.00000e+00,  1.00000e+00}
   refcoord-scaling               = COM
   posres-com (3):
      posres-com[0]= 0.00000e+00
      posres-com[1]= 0.00000e+00
      posres-com[2]= 0.00000e+00
   posres-comB (3):
      posres-comB[0]= 0.00000e+00
      posres-comB[1]= 0.00000e+00
      posres-comB[2]= 0.00000e+00
   QMMM                           = false
qm-opts:
   ngQM                           = 0
   constraint-algorithm           = Lincs
   continuation                   = false
   Shake-SOR                      = false
   shake-tol                      = 0.0001
   lincs-order                    = 4
   lincs-iter                     = 1
   lincs-warnangle                = 30
   nwall                          = 0
   wall-type                      = 9-3
   wall-r-linpot                  = -1
   wall-atomtype[0]               = -1
   wall-atomtype[1]               = -1
   wall-density[0]                = 0
   wall-density[1]                = 0
   wall-ewald-zfac                = 3
   pull                           = false
   awh                            = false
   rotation                       = false
   interactiveMD                  = false
   disre                          = No
   disre-weighting                = Conservative
   disre-mixed                    = false
   dr-fc                          = 1000
   dr-tau                         = 0
   nstdisreout                    = 100
   orire-fc                       = 0
   orire-tau                      = 0
   nstorireout                    = 100
   free-energy                    = no
   cos-acceleration               = 0
   deform (3x3):
      deform[    0]={ 0.00000e+00,  0.00000e+00,  0.00000e+00}
      deform[    1]={ 0.00000e+00,  0.00000e+00,  0.00000e+00}
      deform[    2]={ 0.00000e+00,  0.00000e+00,  0.00000e+00}
   simulated-tempering            = false
   swapcoords                     = no
   userint1                       = 0
   userint2                       = 0
   userint3                       = 0
   userint4                       = 0
   userreal1                      = 0
   userreal2                      = 0
   userreal3                      = 0
   userreal4                      = 0
   applied-forces:
     electric-field:
       x:
         E0                       = 0
         omega                    = 0
         t0                       = 0
         sigma                    = 0
       y:
         E0                       = 0
         omega                    = 0
         t0                       = 0
         sigma                    = 0
       z:
         E0                       = 0
         omega                    = 0
         t0                       = 0
         sigma                    = 0
     density-guided-simulation:
       active                     = false
       group                      = protein
       similarity-measure         = inner-product
       atom-spreading-weight      = unity
       force-constant             = 1e+09
       gaussian-transform-spreading-width = 0.2
       gaussian-transform-spreading-range-in-multiples-of-width = 4
       reference-density-filename = reference.mrc
       nst                        = 1
       normalize-densities        = true
       adaptive-force-scaling     = false
       adaptive-force-scaling-time-constant = 4
       shift-vector               =
       transformation-matrix      =
grpopts:
   nrdf:      105203
   ref-t:         298
   tau-t:         0.1
annealing:          No
annealing-npoints:           0
   acc:	           0           0           0
   nfreeze:           N           N           N
   energygrp-flags[  0]: 0

Changing nstlist from 40 to 100, rlist from 1 to 1

Initializing Domain Decomposition on 128 ranks
Dynamic load balancing: auto
Using update groups, nr 21046, average size 2.0 atoms, max. radius 0.103 nm
Minimum cell size due to atom displacement: 0.685 nm
Initial maximum distances in bonded interactions:
    two-body bonded interactions: 0.378 nm, LJ-14, atoms 11 22
  multi-body bonded interactions: 0.371 nm, Ryckaert-Bell., atoms 57 64
Minimum cell size due to bonded interactions: 0.408 nm
Scaling the initial minimum size with 1/0.8 (option -dds) = 1.25
Guess for relative PME load: 0.44
Will use 72 particle-particle and 56 PME only ranks
This is a guess, check the performance at the end of the log file
Using 56 separate PME ranks, as guessed by mdrun
Optimizing the DD grid for 72 cells with a minimum initial size of 0.856 nm
The maximum allowed number of cells is: X 10 Y 10 Z 10
Domain decomposition grid 8 x 3 x 3, separate PME ranks 56
PME domain decomposition: 8 x 7 x 1
Interleaving PP and PME ranks
This rank does only particle-particle work.
Domain decomposition rank 0, coordinates 0 0 0

The initial number of communication pulses is: X 2 Y 1 Z 1
The initial domain decomposition cell size is: X 1.12 nm Y 3.00 nm Z 3.00 nm

The maximum allowed distance for atom groups involved in interactions is:
                 non-bonded interactions           1.207 nm
(the following are initial values, they could change due to box deformation)
            two-body bonded interactions  (-rdd)   1.207 nm
          multi-body bonded interactions  (-rdd)   1.125 nm

When dynamic load balancing gets turned on, these settings will change to:
The maximum number of communication pulses is: X 2 Y 2 Z 2
The minimum size for domain decomposition cells is 0.767 nm
The requested allowed shrink of DD cells (option -dds) is: 0.80
The allowed shrink of domain decomposition cells is: X 0.68 Y 0.26 Z 0.26
The maximum allowed distance for atom groups involved in interactions is:
                 non-bonded interactions           1.207 nm
            two-body bonded interactions  (-rdd)   1.207 nm
          multi-body bonded interactions  (-rdd)   0.767 nm

This is simulation 1 out of 8 running as a composite GROMACS
multi-simulation job. Setup for this simulation:

Using 128 MPI processes

Non-default thread affinity set, disabling internal thread affinity

Using 1 OpenMP thread per MPI process

System total charge: -0.000
Will do PME sum in reciprocal space for LJ dispersion interactions.

Using a Gaussian width (1/beta) of 0.298423 nm for LJ Ewald
Will do PME sum in reciprocal space for electrostatic interactions.

Using a Gaussian width (1/beta) of 0.320163 nm for Ewald
Potential shift: LJ r^-12: -1.000e+00 r^-6: -1.000e-03, Ewald -1.000e-05
Initialized non-bonded Ewald tables, spacing: 9.33e-04 size: 1073

Using shifted Lennard-Jones, switch between 0 and 1 nm
Generated table with 1000 data points for 1-4 COUL.
Tabscale = 500 points/nm
Generated table with 1000 data points for 1-4 LJ6.
Tabscale = 500 points/nm
Generated table with 1000 data points for 1-4 LJ12.
Tabscale = 500 points/nm

Using SIMD 4x8 nonbonded short-range kernels

Using a 4x8 pair-list setup:
  updated every 100 steps, buffer 0.000 nm, rlist 1.000 nm
At tolerance 0.005 kJ/mol/ps per atom, equivalent classical 1x1 list would be:
  updated every 100 steps, buffer 0.178 nm, rlist 1.178 nm
Removing pbc first time

Initializing LINear Constraint Solver

The number of constraints is 21034

Linking all bonded interactions to atoms

Intra-simulation communication will occur every 10 steps.

There are: 42080 Atoms
Atom distribution over 72 domains: av 584 stddev 54 min 479 max 723

Constraining the starting coordinates (step 0)

Constraining the coordinates at t0-dt (step 0)
Center of mass motion removal mode is Linear
We have the following groups for center of mass motion removal:
  0:  rest
RMS relative constraint deviation after constraining: 3.85e-06
Initial temperature: 298.137 K

PLUMED: PLUMED is starting
PLUMED: Version: 2.7.2 (git: Unknown) compiled on Oct 15 2021 at 15:46:18
PLUMED: Please cite these papers when using PLUMED [1][2]
PLUMED: For further information see the PLUMED web page at http://www.plumed.org
PLUMED: Root: /work/y07/shared/apps/core/gromacs/2021.3+plumed/plumed-2.7.2/lib/plumed
PLUMED: For installed feature, see /work/y07/shared/apps/core/gromacs/2021.3+plumed/plumed-2.7.2/lib/plumed/src/config/config.txt
PLUMED: Molecular dynamics engine: gromacs
PLUMED: Precision of reals: 4
PLUMED: Running over 72 nodes
PLUMED: Number of threads: 1
PLUMED: Cache line size: 512
PLUMED: Number of atoms: 42080
PLUMED: GROMACS-like replica exchange is on
PLUMED: File suffix: .1
PLUMED: FILE: ../plumed.dat
PLUMED: Action GROUP
PLUMED:   with label B1
PLUMED:   importing group 'ndi_ox' from index file ../index.ndx
PLUMED:   list of atoms:
PLUMED:  7 10 18 21 31 38 45 56 63 70
PLUMED: Action GROUP
PLUMED:   with label B2
PLUMED:   importing group 'cation' from index file ../index.ndx
PLUMED:   list of atoms:
PLUMED:  75
PLUMED: Action GROUP
PLUMED:   with label B3
PLUMED:   importing group 'I6' from index file ../index.ndx
PLUMED:   list of atoms:
PLUMED:  1 2 3 4 5 6 7 8 9 10 11 12 13 14 15 16 17 18 19 20 21 22 23 24 25
PLUMED:  26 27 28 29 30 31 32 33 34 35 36 37 38 39 40 41 42 43 44 45 46 47 48 49 50
PLUMED:  51 52 53 54 55 56 57 58 59 60 61 62 63 64 65 66 67 68 69 70 71 72 73 74 1
PLUMED:  2 3 4 5 6 7 8 9 10 11 12 13 14 15 16 17 18 19 20 21 22 23 24 25 26
PLUMED:  27 28 29 30 31 32 33 34 35 36 37 38 39 40 41 42 43 44 45 46 47 48 49 50 51
PLUMED:  52 53 54 55 56 57 58 59 60 61 62 63 64 65 66 67 68 69 70 71 72 73 74
PLUMED: Action CENTER
PLUMED:   with label CO1
PLUMED:   serial associated to this virtual atom is 42081
PLUMED:   of atoms:
PLUMED:  7 10 18 21 31 38 45 56 63 70
PLUMED:  using the geometric center
PLUMED:   broken molecules will be rebuilt assuming atoms are in the proper order
PLUMED: Action CENTER
PLUMED:   with label CO2
PLUMED:   serial associated to this virtual atom is 42082
PLUMED:   of atoms:
PLUMED:  75
PLUMED:  using the geometric center
PLUMED:   broken molecules will be rebuilt assuming atoms are in the proper order
PLUMED: Action CENTER
PLUMED:   with label CO3
PLUMED:   serial associated to this virtual atom is 42083
PLUMED:   of atoms:
PLUMED:  1 2 3 4 5 6 7 8 9 10 11 12 13 14 15 16 17 18 19 20 21 22 23 24 25
PLUMED:  26 27 28 29 30 31 32 33 34 35 36 37 38 39 40 41 42 43 44 45 46 47 48 49 50
PLUMED:  51 52 53 54 55 56 57 58 59 60 61 62 63 64 65 66 67 68 69 70 71 72 73 74 1
PLUMED:  2 3 4 5 6 7 8 9 10 11 12 13 14 15 16 17 18 19 20 21 22 23 24 25 26
PLUMED:  27 28 29 30 31 32 33 34 35 36 37 38 39 40 41 42 43 44 45 46 47 48 49 50 51
PLUMED:  52 53 54 55 56 57 58 59 60 61 62 63 64 65 66 67 68 69 70 71 72 73 74
PLUMED:  using the geometric center
PLUMED:   broken molecules will be rebuilt assuming atoms are in the proper order
PLUMED: Action DISTANCE
PLUMED:   with label D1
PLUMED:   between atoms 42082 42083
PLUMED:   using periodic boundary conditions
PLUMED: Action COORDINATION
PLUMED:   with label CM1
PLUMED:   between two groups of 10 and 1 atoms
PLUMED:   first group:
PLUMED:   7  10  18  21  31  38  45  56  63  70
PLUMED:   second group:
PLUMED:   75
PLUMED:   using periodic boundary conditions
PLUMED:   contacts are counted with cutoff 0.4.  Using rational switching function with parameters d0=0.3 nn=6 mm=12
PLUMED: Action METAD
PLUMED:   with label metad
PLUMED:   with arguments D1 CM1
PLUMED:   added component to this action:  metad.bias
PLUMED:   Binsize not specified, 1/5 of sigma will be be used
PLUMED:   Gaussian width  0.200000 0.200000  Gaussian height 0.500000
PLUMED:   Gaussian deposition pace 200
PLUMED:   Gaussian file ../HILLS
PLUMED:   Well-Tempered Bias Factor 10.000000
PLUMED:   Hills relaxation time (tau) 17.839510
PLUMED:   KbT 2.477710
PLUMED:   Grid min -0.5 -0.5
PLUMED:   Grid max 18 20
PLUMED:   Grid bin 463 513
PLUMED:   Grid uses spline interpolation
PLUMED:   Multiple walkers active using MPI communnication
PLUMED:   added component to this action:  metad.rbias
PLUMED:   added component to this action:  metad.rct
PLUMED:   The c(t) reweighting factor will be calculated every 1 hills
PLUMED:   added component to this action:  metad.work
PLUMED:   Bibliography [3][4][5][6]
PLUMED: Action PRINT
PLUMED:   with label @9
PLUMED:   with stride 200
PLUMED:   with arguments D1 CM1 metad.bias metad.rbias metad.rct
PLUMED:   on file ../COLVAR
PLUMED:   with format  %f
PLUMED: END FILE: ../plumed.dat
PLUMED: Timestep: 0.002000
PLUMED: KbT: 2.477710
PLUMED: Relevant bibliography:
PLUMED:   [1] The PLUMED consortium, Nat. Methods 16, 670 (2019)
PLUMED:   [2] Tribello, Bonomi, Branduardi, Camilloni, and Bussi, Comput. Phys. Commun. 185, 604 (2014)
PLUMED:   [3] Laio and Parrinello, PNAS 99, 12562 (2002)
PLUMED:   [4] Barducci, Bussi, and Parrinello, Phys. Rev. Lett. 100, 020603 (2008)
PLUMED:   [5] Raiteri, Laio, Gervasio, Micheletti, and Parrinello, J. Phys. Chem. B 110, 3533 (2006)
PLUMED:   [6] Pratyush and Parrinello, J. Phys. Chem. B, 119, 736 (2015)
PLUMED: Please read and cite where appropriate!
PLUMED: Finished setup
Started mdrun on rank 0 Thu Nov 24 08:22:09 2022

           Step           Time
              0        0.00000

   Energies (kJ/mol)
           Bond          Angle Ryckaert-Bell.  Improper Dih.          LJ-14
    8.43599e+02    4.41549e+03    6.68460e+00    2.83188e+00   -2.98411e+03
     Coulomb-14        LJ (SR)   Coulomb (SR)   Coul. recip.      LJ recip.
   -2.40180e+05   -1.52808e+04   -8.36401e+04    2.44601e+04   -7.57979e+04
      Potential    Kinetic En.   Total Energy  Conserved En.    Temperature
   -3.88155e+05    1.30553e+05   -2.57601e+05   -2.57604e+05    2.98508e+02
    1.43619e+03    4.26901e-06

	<====  A V E R A G E S  ====>

	Statistics over 596101 steps using 5962 frames

   Energies (kJ/mol)
           Bond          Angle Ryckaert-Bell.  Improper Dih.          LJ-14
    1.77000e+04    6.46914e+04    5.87103e+00    2.91747e+01   -2.88194e+03
     Coulomb-14        LJ (SR)   Coulomb (SR)   Coul. recip.      LJ recip.
   -2.40386e+05   -1.33862e+04   -1.01337e+05    9.11368e+03   -7.81325e+04
      Potential    Kinetic En.   Total Energy  Conserved En.    Temperature
   -3.44584e+05    1.30336e+05   -2.14247e+05   -2.42522e+05    2.98012e+02
 Pressure (bar)   Constr. rmsd
   -2.31930e+01    0.00000e+00

          Box-X          Box-Y          Box-Z
    8.72069e+00    8.72069e+00    8.72069e+00

   Total Virial (kJ/mol)
    4.39067e+04   -9.56673e+01   -2.08653e+01
   -9.56957e+01    4.39364e+04    2.29094e+01
   -2.08649e+01    2.29375e+01    4.39423e+04

   Pressure (bar)
   -2.19584e+01    4.87959e+00    1.45334e+00
    4.88087e+00   -2.38799e+01   -1.11111e+00
    1.45332e+00   -1.11237e+00   -2.37407e+01
